/*--------------------------------*- C++ -*----------------------------------*\
| =========                 |                                                 |
| \\      /  F ield         | OpenFOAM: The Open Source CFD Toolbox           |
|  \\    /   O peration     | Version:  2.1.1                                 |
|   \\  /    A nd           | Web:      www.OpenFOAM.org                      |
|    \\/     M anipulation  |                                                 |
\*---------------------------------------------------------------------------*/
FoamFile
{
    version     2.0;
    format      ascii;
    class       dictionary;
    location    "system";
    object      fvSolution;
}
// * * * * * * * * * * * * * * * * * * * * * * * * * * * * * * * * * * * * * //

solvers
{
    pcorr
    {
        solver          PCG;
        preconditioner  DIC;
        tolerance       1e-10;
        relTol          0;
    }

    p_rgh
    {
        solver          PCG;
        preconditioner  DIC;
        tolerance       1e-07;
        relTol          0.05;
    }

    p_rghFinal
    {
        solver          PCG;
        preconditioner  DIC;
        tolerance       1e-07;
        relTol          0;
    }

    "(U|k|epsilon)"
    {
        solver          PBiCG;
        preconditioner  DILU;
        tolerance       1e-06;
        relTol          0;
    }

    "(U|k|epsilon)Final"
    {
        solver          PBiCG;
        preconditioner  DILU;
        tolerance       1e-08;
        relTol          0;
    }
 RFinal
    {
        solver          BICCG;
        preconditioner  DILU;
        tolerance       1e-07;
        relTol          0.05;
    }
  alpha1
    {
        maxUnboundedness 1e-5;
        CoCoeff          2;
        maxIter          5;
        nLimiterIter     2;

        solver           PBiCG;
        preconditioner   DILU;
        tolerance        1e-12;
        relTol           0.1;
    };
T
{
solver BICCG;
preconditioner DILU;
tolerance 1e-7;
relTol 0;
}

TFinal
{
solver BICCG;
preconditioner DILU;
tolerance 1e-7;
relTol 0;
}
AlSu
    {
        solver          ICCG;
        preconditioner  FDIC;
        tolerance       1e-07;
        relTol          0.05;
    }

}

PIMPLE
{
    momentumPredictor no;
    nCorrectors     3;
    nNonOrthogonalCorrectors 0;
    nAlphaCorr      2;
    nAlphaSubCycles 3;
    cAlpha         2;
    pRefPoint      (0 0 0);
    pRefValue      0;
}


// ************************************************************************* //
