/*--------------------------------*- C++ -*----------------------------------*\
| =========                 |                                                 |
| \\      /  F ield         | OpenFOAM: The Open Source CFD Toolbox           |
|  \\    /   O peration     | Version:  1.4.1-dev                             |
|   \\  /    A nd           | Web:      http://www.openfoam.org               |
|    \\/     M anipulation  |                                                 |
\*---------------------------------------------------------------------------*/

FoamFile
{
    version 2.1;
    format ascii;

    root "a";
    case "Staubsack";
    instance "0.001";
    local "lagrangian";

    class Cloud;
    object positions;
}

// * * * * * * * * * * * * * * * * * * * * * * * * * * * * * * * * * * * * * //

1
(
(0.093 0.012 0.001) 0
//(0.001 0.0035 0.004) 0
//(0.0003 0.0055 0.004) 0
//(0.001 0.0055 0.004) 0
//(0.0003 0.005 0.004) 0

//(0.013 0.008 0.004) 0
)


// ************************************************************************* //
