/*--------------------------------*- C++ -*----------------------------------*\
| =========                 |                                                 |
| \\      /  F ield         | OpenFOAM: The Open Source CFD Toolbox           |
|  \\    /   O peration     | Version:  1.4.1-dev                             |
|   \\  /    A nd           | Web:      http://www.openfoam.org               |
|    \\/     M anipulation  |                                                 |
\*---------------------------------------------------------------------------*/

FoamFile
{
    version 2.0;
    format ascii;

    //root "/home/goniva/OpenFOAM/goniva-1.4.1-dev/run/rhoTurbSprayFoam";
   // case "Staubsack";
   // instance "0.001";
    local "lagrangian";

    class scalarField;
    object T;
}

// * * * * * * * * * * * * * * * * * * * * * * * * * * * * * * * * * * * * * //

1
(
363
//1.6e-3
)

// ************************************************************************* //
