/*--------------------------------*- C++ -*----------------------------------*\
| =========                 |                                                 |
| \\      /  F ield         | OpenFOAM: The Open Source CFD Toolbox           |
|  \\    /   O peration     | Version:  2.1.1                                 |
|   \\  /    A nd           | Web:      www.OpenFOAM.org                      |
|    \\/     M anipulation  |                                                 |
\*---------------------------------------------------------------------------*/
FoamFile
{
    version     2.0;
    format      ascii;
    class       dictionary;
    location    "system";
    object      fvSchemes;
}
// * * * * * * * * * * * * * * * * * * * * * * * * * * * * * * * * * * * * * //

ddtSchemes
{
    default         Euler; // Euler  backward;
   //default         Euler;
}

gradSchemes
{
    default         Gauss linear; //linear
}

divSchemes
{
    //div(rho*phi,U)  Gauss linear;
    div(phi,alpha)  Gauss vanLeer;
    div(phirb,alpha) Gauss interfaceCompression;
    div(phi,k)      Gauss upwind;
    div(phi,epsilon) Gauss upwind;
   div(rho*phi,U) Gauss limitedLinearV 1;//
   div(rho*phi*cpf,T) Gauss upwind; //

    div(phi,R)      Gauss upwind;
    div(R)          Gauss linear;
    div(U)           Gauss linear corrected;
    div(phi,nuTilda) Gauss upwind;
    div((nuEff*dev(T(grad(U))))) Gauss linear;
}

laplacianSchemes
{
    default         Gauss linear corrected;// limited 0.333;
}

interpolationSchemes
{
    default         linear;
}

snGradSchemes
{
    default         corrected;//limited 0.333;
}

fluxRequired
{
    default         no;
    p_rgh;
    pcorr;
    alpha1;
}


// ************************************************************************* //
