/*--------------------------------*- C++ -*----------------------------------*\
| =========                 |                                                 |
| \\      /  F ield         | OpenFOAM: The Open Source CFD Toolbox           |
|  \\    /   O peration     | Version:  2.1.1                                 |
|   \\  /    A nd           | Web:      www.OpenFOAM.org                      |
|    \\/     M anipulation  |                                                 |
\*---------------------------------------------------------------------------*/
FoamFile
{
    version     2.0;
    format      ascii;
    class       volScalarField;
    location    "0";
    object      uprime;
}
// * * * * * * * * * * * * * * * * * * * * * * * * * * * * * * * * * * * * * //

dimensions      [0 1 -1 0 0 0 0];

internalField   uniform 0.365148;

boundaryField
{
    wall
    {
        type            calculated;
        value           uniform 0.57735;
    }
    walls
    {
        type            calculated;
        value           uniform 0.57735;
    }
    outlet
    {
        type            calculated;
        value           uniform 0.374166;
    }
    inletWall
    {
        type            calculated;
        value           uniform 0.57735;
    }
    inlet
    {
        type            calculated;
        value           uniform 1.65328;
    }
}


// ************************************************************************* //
